MATDSS_ver0.96/DSS_Files/123Bus/ieee123_Curr_Seq.Txt

SYMMETRICAL COMPONENT CURRENTS BY CIRCUIT ELEMENT (first 3 phases)

Element             Term      I1         I2         %I2/I1    I0         %I0/I1   %Normal %Emergency

"VSOURCE.SOURCE" ..   1      533.75       73.368    13.75      61.056    11.44      0.00     0.00
   -                  2      533.75       73.368    13.75      61.056    11.44      0.00     0.00
"TRANSFORMER.REG1A"   1      533.75       73.368    13.75      61.056    11.44     85.82    62.94
   -                  2      514.46       70.716    13.75      58.849    11.44      0.00     0.00
"LINE.L115" .......   1      514.46       70.716    13.75      58.849    11.44     70.16   105.24
   -                  2      514.46       70.716    13.75      58.849    11.44      0.00     0.00
"LINE.L1" .........   1       8.996            0     0.00           0     0.00      1.00     1.50
   -                  2      8.9961            0     0.00           0     0.00      0.00     0.00
"LINE.L2" .........   1       46.57            0     0.00           0     0.00      5.17     7.76
   -                  2       46.57            0     0.00           0     0.00      0.00     0.00
"LINE.L3" .........   1      490.08       70.193    14.32      58.235    11.88     68.15   102.23
   -                  2      490.08       70.193    14.32      58.235    11.88      0.00     0.00
"LINE.L4" .........   1       18.14            0     0.00           0     0.00      2.02     3.02
   -                  2      18.141            0     0.00           0     0.00      0.00     0.00
"LINE.L5" .........   1       28.43            0     0.00           0     0.00      3.16     4.74
   -                  2       28.43            0     0.00           0     0.00      0.00     0.00
"LINE.L6" .........   1      19.113            0     0.00           0     0.00      2.12     3.19
   -                  2      19.113            0     0.00           0     0.00      0.00     0.00
"LINE.L7" .........   1      487.05       67.229    13.80      55.285    11.35     67.14   100.71
   -                  2      487.05       67.229    13.80      55.285    11.35      0.00     0.00
"LINE.L8" .........   1      9.0214            0     0.00           0     0.00      1.00     1.50
   -                  2      9.0216            0     0.00           0     0.00      0.00     0.00
"LINE.L9" .........   1      46.541            0     0.00           0     0.00      5.17     7.76
   -                  2      46.542            0     0.00           0     0.00      0.00     0.00
"LINE.L10" ........   1      468.74       54.618    11.65      42.975     9.17     62.01    93.01
   -                  2      468.74       54.618    11.65      42.975     9.17      0.00     0.00
"LINE.L11" ........   1      28.071            0     0.00           0     0.00      3.12     4.68
   -                  2      28.071            0     0.00           0     0.00      0.00     0.00
"LINE.L12" ........   1      46.499            0     0.00           0     0.00      5.17     7.75
   -                  2      46.499            0     0.00           0     0.00      0.00     0.00
"LINE.L13" ........   1      179.38       28.047    15.64      22.101    12.32     25.47    38.20
   -                  2      179.38       28.047    15.64      22.101    12.32      0.00     0.00
"LINE.L14" ........   1      18.755            0     0.00           0     0.00      2.08     3.13
   -                  2      18.755            0     0.00           0     0.00      0.00     0.00
"LINE.L15" ........   1      9.3167            0     0.00           0     0.00      1.04     1.55
   -                  2       9.317            0     0.00           0     0.00      0.00     0.00
"LINE.L16" ........   1      18.416            0     0.00           0     0.00      2.05     3.07
   -                  2      18.417            0     0.00           0     0.00      0.00     0.00
"LINE.L17" ........   1      9.2033            0     0.00           0     0.00      1.02     1.53
   -                  2      9.2036            0     0.00           0     0.00      0.00     0.00
"LINE.L18" ........   1      37.418            0     0.00           0     0.00      4.16     6.24
   -                  2      37.419            0     0.00           0     0.00      0.00     0.00
"LINE.L19" ........   1      43.607       12.616    28.93      11.888    27.26      6.22     9.33
   -                  2      43.607       12.616    28.93      11.888    27.26      0.00     0.00
"LINE.L20" ........   1      18.634            0     0.00           0     0.00      2.07     3.11
   -                  2      18.634            0     0.00           0     0.00      0.00     0.00
"LINE.L21" ........   1      19.107            0     0.00           0     0.00      2.12     3.18
   -                  2      19.107            0     0.00           0     0.00      0.00     0.00
"LINE.L22" ........   1      37.238       18.984    50.98      18.256    49.03      6.22     9.33
   -                  2      37.239       18.984    50.98      18.256    49.02      0.00     0.00
"LINE.L23" ........   1      18.578            0     0.00           0     0.00      2.06     3.10
   -                  2      18.579            0     0.00           0     0.00      0.00     0.00
"LINE.L24" ........   1      31.046        16.72    53.85      16.169    52.08      6.22     9.33
   -                  2      31.047        16.72    53.85      16.169    52.08      0.00     0.00
"LINE.L25" ........   1      18.633            0     0.00           0     0.00      2.07     3.11
   -                  2      18.633            0     0.00           0     0.00      0.00     0.00
"LINE.L26" ........   1      18.562       10.849    58.45      10.572    56.95      4.12     6.18
   -                  2      18.562       10.849    58.45      10.572    56.95      0.00     0.00
"LINE.L27" ........   1      18.633            0     0.00           0     0.00      2.07     3.11
   -                  2      18.633            0     0.00           0     0.00      0.00     0.00
"LINE.L28" ........   1      18.592            0     0.00           0     0.00      2.07     3.10
   -                  2      18.592            0     0.00           0     0.00      0.00     0.00
"LINE.L29" ........   1      18.633            0     0.00           0     0.00      2.07     3.11
   -                  2      18.634            0     0.00           0     0.00      0.00     0.00
"LINE.L30" ........   1      12.351        6.297    50.98      6.0555    49.03      2.07     3.10
   -                  2      12.352       6.2971    50.98      6.0555    49.03      0.00     0.00
"LINE.L31" ........   1      6.1964        6.197   100.01      6.1972   100.01      2.07     3.10
   -                  2      6.1969       6.1971   100.00      6.1972   100.00      0.00     0.00
"LINE.L32" ........   1  0.00063298   7.1268E-005    11.26  1.9678E-005     3.11      0.00     0.00
   -                  2  4.4982E-012   7.6446E-012   169.95  1.4765E-011   328.24      0.00     0.00
"LINE.L33" ........   1      9.2977            0     0.00           0     0.00      1.03     1.55
   -                  2       9.298            0     0.00           0     0.00      0.00     0.00
"LINE.L34" ........   1       27.62            0     0.00           0     0.00      3.07     4.60
   -                  2       27.62            0     0.00           0     0.00      0.00     0.00
"LINE.L35" ........   1      18.424            0     0.00           0     0.00      2.05     3.07
   -                  2      18.425            0     0.00           0     0.00      0.00     0.00
"LINE.L36" ........   1      105.08       3.9048     3.72      3.3431     3.18     12.08    18.12
   -                  2      105.08       3.9049     3.72      3.3431     3.18      0.00     0.00
"LINE.L37" ........   1      18.425            0     0.00           0     0.00      2.05     3.07
   -                  2      18.425            0     0.00           0     0.00      0.00     0.00
"LINE.L38" ........   1      18.427            0     0.00           0     0.00      2.05     3.07
   -                  2      18.427            0     0.00           0     0.00      0.00     0.00
"LINE.L39" ........   1      9.1101            0     0.00           0     0.00      1.01     1.52
   -                  2      9.1104            0     0.00           0     0.00      0.00     0.00
"LINE.L40" ........   1      9.2779            0     0.00           0     0.00      1.03     1.55
   -                  2      9.2782            0     0.00           0     0.00      0.00     0.00
"LINE.L41" ........   1      102.01       6.8453     6.71      6.3007     6.18     12.08    18.12
   -                  2      102.01       6.8454     6.71      6.3007     6.18      0.00     0.00
"LINE.L42" ........   1      19.017            0     0.00           0     0.00      2.11     3.17
   -                  2      19.018            0     0.00           0     0.00      0.00     0.00
"LINE.L43" ........   1      92.593       4.7421     5.12      2.0155     2.18     11.04    16.56
   -                  2      92.593       4.7422     5.12      2.0155     2.18      0.00     0.00
"LINE.L44" ........   1      18.772            0     0.00           0     0.00      2.09     3.13
   -                  2      18.772            0     0.00           0     0.00      0.00     0.00
"LINE.L45" ........   1      86.378       1.5718     1.82      4.3039     4.98      9.95    14.93
   -                  2      86.378       1.5717     1.82      4.3039     4.98      0.00     0.00
"LINE.L46" ........   1       9.455            0     0.00           0     0.00      1.05     1.58
   -                  2      9.4553            0     0.00           0     0.00      0.00     0.00
"LINE.L47" ........   1      35.866       0.2966     0.83     0.52388     1.46      4.06     6.08
   -                  2      35.867      0.29671     0.83     0.52393     1.46      0.00     0.00
"LINE.L48" ........   1      32.645       1.2501     3.83      3.8821    11.89      3.93     5.89
   -                  2      32.645       1.2503     3.83      3.8821    11.89      0.00     0.00
"LINE.L49" ........   1      9.3556        5.435    58.09      5.3113    56.77      2.07     3.10
   -                  2      9.3559       5.4348    58.09      5.3112    56.77      0.00     0.00
"LINE.L50" ........   1      3.1526       3.1541   100.05      3.1537   100.03      1.05     1.58
   -                  2       3.153        3.154   100.03      3.1537   100.02      0.00     0.00
"LINE.L51" ........   1   0.0014017    0.0004258    30.38  0.00019326    13.79      0.00     0.00
   -                  2  3.5443E-008   1.9357E-008    54.62  1.9301E-008    54.46      0.00     0.00
"LINE.L52" ........   1      275.77       25.675     9.31      18.937     6.87     35.14    52.72
   -                  2      275.77       25.675     9.31      18.937     6.87      0.00     0.00
"LINE.L53" ........   1      269.86       19.706     7.30       12.85     4.76     33.14    49.71
   -                  2      269.86       19.706     7.30       12.85     4.76      0.00     0.00
"LINE.L54" ........   1      6.0996        2.999    49.17      3.1022    50.86      1.03     1.54
   -                  2         6.1       2.9991    49.16      3.1022    50.85      0.00     0.00
"LINE.L55" ........   1      264.09       19.372     7.34      12.394     4.69     32.16    48.24
   -                  2      264.09       19.372     7.34      12.394     4.69      0.00     0.00
"LINE.L56" ........   1      3.0201       3.0205   100.01      3.0205   100.01      1.01     1.51
   -                  2      3.0205       3.0205   100.00      3.0205   100.00      0.00     0.00
"LINE.L57" ........   1      18.409            0     0.00           0     0.00      2.05     3.07
   -                  2      18.409            0     0.00           0     0.00      0.00     0.00
"LINE.L58" ........   1      258.29       24.849     9.62      17.942     6.95     32.16    48.24
   -                  2      258.29       24.848     9.62      17.942     6.95      0.00     0.00
"LINE.L59" ........   1       9.092            0     0.00           0     0.00      1.01     1.52
   -                  2      9.0923            0     0.00           0     0.00      0.00     0.00
"LINE.L60" ........   1   0.0017145   0.00019055    11.11  3.9831E-005     2.32      0.00     0.00
   -                  2  1.3886E-005   1.6709E-007     1.20  1.5408E-007     1.11      0.00     0.00
"LINE.L61" ........   1      59.114       13.206    22.34      9.6512    16.33      8.97    13.45
   -                  2      59.117       13.205    22.34      9.6513    16.33      0.00     0.00
"LINE.L62" ........   1      52.932       7.0097    13.24      5.1762     9.78      6.90    10.35
   -                  2      52.935       7.0097    13.24      5.1763     9.78      0.00     0.00
"LINE.L63" ........   1      46.609       11.432    24.53      11.495    24.66      6.90    10.35
   -                  2      46.614       11.432    24.52      11.496    24.66      0.00     0.00
"LINE.L64" ........   1      35.196        16.17    45.94      11.613    32.99      6.90    10.35
   -                  2      35.203        16.17    45.93      11.613    32.99      0.00     0.00
"LINE.L65" ........   1      11.609       11.613   100.04      11.613   100.03      3.87     5.81
   -                  2      11.613       11.613   100.00      11.613   100.00      0.00     0.00
"LINE.L66" ........   1      53.853            0     0.00           0     0.00      5.98     8.98
   -                  2      53.853            0     0.00           0     0.00      0.00     0.00
"LINE.L67" ........   1      125.41       5.4965     4.38      9.8405     7.85     14.75    22.13
   -                  2      125.41       5.4966     4.38      9.8405     7.85      0.00     0.00
"LINE.L68" ........   1       66.85       8.7189    13.04      8.2063    12.28      9.17    13.75
   -                  2      66.851       8.7188    13.04      8.2063    12.28      0.00     0.00
"LINE.L69" ........   1      44.898            0     0.00           0     0.00      4.99     7.48
   -                  2      44.898            0     0.00           0     0.00      0.00     0.00
"LINE.L70" ........   1      26.956            0     0.00           0     0.00      3.00     4.49
   -                  2      26.956            0     0.00           0     0.00      0.00     0.00
"LINE.L71" ........   1      17.975            0     0.00           0     0.00      2.00     3.00
   -                  2      17.975            0     0.00           0     0.00      0.00     0.00
"LINE.L72" ........   1      55.348            0     0.00           0     0.00      6.15     9.22
   -                  2      55.348            0     0.00           0     0.00      0.00     0.00
"LINE.L73" ........   1      113.26       17.557    15.50       12.88    11.37     13.96    20.94
   -                  2      113.26       17.557    15.50      12.881    11.37      0.00     0.00
"LINE.L74" ........   1      37.302            0     0.00           0     0.00      4.14     6.22
   -                  2      37.302            0     0.00           0     0.00      0.00     0.00
"LINE.L75" ........   1      18.096            0     0.00           0     0.00      2.01     3.02
   -                  2      18.097            0     0.00           0     0.00      0.00     0.00
"LINE.L76" ........   1      77.936      0.85652     1.10       1.424     1.83      8.71    13.06
   -                  2      77.935       0.8564     1.10       1.424     1.83      0.00     0.00
"LINE.L77" ........   1      35.197       12.993    36.91      13.387    38.03      6.34     9.52
   -                  2      35.197       12.993    36.92      13.387    38.03      0.00     0.00
"LINE.L78" ........   1      78.286       6.5774     8.40      7.0551     9.01      9.01    13.51
   -                  2      78.285       6.5774     8.40      7.0551     9.01      0.00     0.00
"LINE.L79" ........   1      6.4802       6.4806   100.01      6.4805   100.01      2.16     3.24
   -                  2      6.4805       6.4805   100.00      6.4805   100.00      0.00     0.00
"LINE.L80" ........   1      79.351       5.8427     7.36      6.1367     7.73      9.01    13.51
   -                  2      79.349       5.8428     7.36      6.1367     7.73      0.00     0.00
"LINE.L81" ........   1      80.619       10.334    12.82      10.911    13.53      9.71    14.57
   -                  2      80.618       10.334    12.82      10.911    13.53      0.00     0.00
"LINE.L82" ........   1      83.363       5.4655     6.56      6.0975     7.31      9.71    14.57
   -                  2      83.362       5.4654     6.56      6.0975     7.31      0.00     0.00
"LINE.L83" ........   1       27.03            0     0.00           0     0.00      3.00     4.50
   -                  2       27.03            0     0.00           0     0.00      0.00     0.00
"LINE.L84" ........   1      85.765       2.6214     3.06      3.2892     3.84      9.71    14.57
   -                  2      85.764       2.6215     3.06      3.2892     3.84      0.00     0.00
"LINE.L85" ........   1      18.027            0     0.00           0     0.00      2.00     3.00
   -                  2      18.027            0     0.00           0     0.00      0.00     0.00
"LINE.L86" ........   1      32.733       10.331    31.56      10.725    32.77      5.42     8.13
   -                  2      32.733       10.331    31.56      10.725    32.77      0.00     0.00
"LINE.L87" ........   1      21.036            0     0.00           0     0.00      2.34     3.51
   -                  2      21.035            0     0.00           0     0.00      0.00     0.00
"LINE.L88" ........   1      21.811       1.2226     5.61      11.947    54.77      3.68     5.52
   -                  2      21.811       1.2227     5.61      11.947    54.77      0.00     0.00
"LINE.L89" ........   1      21.338            0     0.00           0     0.00      2.37     3.56
   -                  2      21.338            0     0.00           0     0.00      0.00     0.00
"LINE.L90" ........   1      15.999       7.2105    45.07      7.3047    45.66      2.34     3.50
   -                  2      15.999       7.2105    45.07      7.3047    45.66      0.00     0.00
"LINE.L91" ........   1      21.016            0     0.00           0     0.00      2.34     3.50
   -                  2      21.016            0     0.00           0     0.00      0.00     0.00
"LINE.L92" ........   1      11.946       5.8575    49.03      6.0893    50.97      1.99     2.99
   -                  2      11.946       5.8574    49.03      6.0893    50.97      0.00     0.00
"LINE.L93" ........   1      17.931            0     0.00           0     0.00      1.99     2.99
   -                  2      17.932            0     0.00           0     0.00      0.00     0.00
"LINE.L94" ........   1      5.9698       5.9703   100.01      5.9702   100.01      1.99     2.99
   -                  2      5.9703       5.9703   100.00      5.9703   100.00      0.00     0.00
"LINE.L95" ........   1      8.9564            0     0.00           0     0.00      1.00     1.49
   -                  2      8.9566            0     0.00           0     0.00      0.00     0.00
"LINE.L96" ........   1      18.332      0.61062     3.33     0.31684     1.73      2.14     3.21
   -                  2      18.333      0.61059     3.33     0.31682     1.73      0.00     0.00
"LINE.L97" ........   1      12.366       6.2166    50.27      6.1773    49.96      2.14     3.21
   -                  2      12.366       6.2168    50.27      6.1773    49.95      0.00     0.00
"LINE.L98" ........   1      6.4162       6.4179   100.03      6.4179   100.03      2.14     3.21
   -                  2      6.4167       6.4179   100.02      6.4179   100.02      0.00     0.00
"LINE.L99" ........   1   0.0026151    0.0003202    12.24  6.9514E-005     2.66      0.00     0.00
   -                  2  2.8086E-012   1.6233E-012    57.80  2.1703E-012    77.27      0.00     0.00
"LINE.L118" .......   1      48.518       8.6955    17.92      8.3306    17.17      7.18    10.77
   -                  2      48.519       8.6954    17.92      8.3306    17.17      0.00     0.00
"LINE.L100" .......   1      45.219            0     0.00           0     0.00      5.02     7.54
   -                  2      45.219            0     0.00           0     0.00      0.00     0.00
"LINE.L101" .......   1      33.447       18.312    54.75      19.066    57.00      7.18    10.77
   -                  2      33.448       18.312    54.75      19.066    57.00      0.00     0.00
"LINE.L102" .......   1      36.193            0     0.00           0     0.00      4.02     6.03
   -                  2      36.193            0     0.00           0     0.00      0.00     0.00
"LINE.L103" .......   1      18.112            0     0.00           0     0.00      2.01     3.02
   -                  2      18.113            0     0.00           0     0.00      0.00     0.00
"LINE.L104" .......   1      35.741            0     0.00           0     0.00      3.97     5.96
   -                  2      35.742            0     0.00           0     0.00      0.00     0.00
"LINE.L105" .......   1      21.538        21.54   100.01       21.54   100.01      7.18    10.77
   -                  2      21.538        21.54   100.01       21.54   100.01      0.00     0.00
"LINE.L106" .......   1      17.883            0     0.00           0     0.00      1.99     2.98
   -                  2      17.884            0     0.00           0     0.00      0.00     0.00
"LINE.L107" .......   1       64.62            0     0.00           0     0.00      7.18    10.77
   -                  2       64.62            0     0.00           0     0.00      0.00     0.00
"LINE.L108" .......   1   0.0032669   0.00040312    12.34  8.4392E-005     2.58      0.00     0.00
   -                  2  1.8574E-012   2.0215E-012   108.84  8.5748E-013    46.17      0.00     0.00
"LINE.L109" .......   1      46.583            0     0.00           0     0.00      5.18     7.76
   -                  2      46.584            0     0.00           0     0.00      0.00     0.00
"LINE.L110" .......   1      9.0414            0     0.00           0     0.00      1.00     1.51
   -                  2       9.042            0     0.00           0     0.00      0.00     0.00
"LINE.L111" .......   1      37.542            0     0.00           0     0.00      4.17     6.26
   -                  2      37.542            0     0.00           0     0.00      0.00     0.00
"LINE.L112" .......   1      28.226            0     0.00           0     0.00      3.14     4.70
   -                  2      28.226            0     0.00           0     0.00      0.00     0.00
"LINE.L113" .......   1      9.0631            0     0.00           0     0.00      1.01     1.51
   -                  2      9.0634            0     0.00           0     0.00      0.00     0.00
"LINE.L114" .......   1      123.46       15.894    12.87      9.4092     7.62     15.18    22.76
   -                  2      123.46       15.894    12.87      9.4092     7.62      0.00     0.00
"LINE.L116" .......   1      281.69       31.733    11.27      25.091     8.91     37.15    55.73
   -                  2      281.69       31.733    11.27      25.091     8.91      0.00     0.00
"LINE.L117" .......   1      193.98       20.603    10.62      17.221     8.88     25.34    38.02
   -                  2      193.98       20.603    10.62      17.221     8.88      0.00     0.00
"LINE.SW1" ........   1      514.46       70.716    13.75      58.849    11.44     70.16   105.24
   -                  2      514.46       70.716    13.75      58.849    11.44      0.00     0.00
"LINE.SW2" ........   1      281.69       31.733    11.27      25.091     8.91     37.15    55.73
   -                  2      281.69       31.733    11.27      25.091     8.91      0.00     0.00
"LINE.SW3" ........   1      123.46       15.894    12.87      9.4091     7.62     15.18    22.76
   -                  2      123.46       15.894    12.87      9.4091     7.62      0.00     0.00
"LINE.SW4" ........   1      202.45       23.654    11.68      19.985     9.87     26.93    40.39
   -                  2      202.45       23.654    11.68      19.985     9.87      0.00     0.00
"LINE.SW5" ........   1      48.518       8.6955    17.92      8.3306    17.17      7.18    10.77
   -                  2      48.518       8.6955    17.92      8.3306    17.17      0.00     0.00
"LINE.SW6" ........   1  1.392E-005   2.6441E-007     1.90  8.4877E-008     0.61      0.00     0.00
   -                  2  1.392E-005   2.6441E-007     1.90  8.4877E-008     0.61      0.00     0.00
"LINE.SW7" ........   1           0            0     0.00           0     0.00      0.00     0.00
   -                  2           0            0     0.00           0     0.00      0.00     0.00
"LINE.SW8" ........   1           0            0     0.00           0     0.00      0.00     0.00
   -                  2           0            0     0.00           0     0.00      0.00     0.00
"TRANSFORMER.XFM1"    1  1.388E-005   1.4733E-007     1.06  1.1453E-007     0.83      0.00     0.00
   -                  2  3.8368E-013   7.5172E-013   195.92  3.125E-013    81.45      0.00     0.00
"CAPACITOR.C83" ...   1      87.041      0.45921     0.53      1.0402     1.20      0.00     0.00
   -                  2      87.041      0.45921     0.53      1.0402     1.20      0.00     0.00
"CAPACITOR.C88A" ..   1      21.647            0     0.00           0     0.00      0.00     0.00
   -                  2      21.647            0     0.00           0     0.00      0.00     0.00
"CAPACITOR.C90B" ..   1      21.657            0     0.00           0     0.00      0.00     0.00
   -                  2      21.657            0     0.00           0     0.00      0.00     0.00
"CAPACITOR.C92C" ..   1      21.585            0     0.00           0     0.00      0.00     0.00
   -                  2      21.585            0     0.00           0     0.00      0.00     0.00
"TRANSFORMER.REG2A"   1      28.071            0     0.00           0     0.00      3.06     2.25
   -                  2      28.071            0     0.00           0     0.00      0.00     0.00
"TRANSFORMER.REG3A"   1      18.866            0     0.00           0     0.00      2.06     1.51
   -                  2      18.633            0     0.00           0     0.00      0.00     0.00
"TRANSFORMER.REG4A"   1      242.35            0     0.00           0     0.00     26.46    19.40
   -                  2      228.09            0     0.00           0     0.00      0.00     0.00
"TRANSFORMER.REG3C"   1      18.591            0     0.00           0     0.00      2.03     1.49
   -                  2      18.591            0     0.00           0     0.00      0.00     0.00
"TRANSFORMER.REG4B"   1      173.72            0     0.00           0     0.00     18.97    13.91
   -                  2      169.48            0     0.00           0     0.00      0.00     0.00
"TRANSFORMER.REG4C"   1      192.15            0     0.00           0     0.00     20.98    15.38
   -                  2       185.2            0     0.00           0     0.00      0.00     0.00
"LOAD.S1A" ........   1      18.167            0     0.00           0     0.00      0.00     0.00
"LOAD.S2B" ........   1      8.9961            0     0.00           0     0.00      0.00     0.00
"LOAD.S4C" ........   1      18.141            0     0.00           0     0.00      0.00     0.00
"LOAD.S5C" ........   1      9.3169            0     0.00           0     0.00      0.00     0.00
"LOAD.S6C" ........   1      19.113            0     0.00           0     0.00      0.00     0.00
"LOAD.S7A" ........   1      9.1668            0     0.00           0     0.00      0.00     0.00
"LOAD.S9A" ........   1      18.471            0     0.00           0     0.00      0.00     0.00
"LOAD.S10A" .......   1      9.3169            0     0.00           0     0.00      0.00     0.00
"LOAD.S11A" .......   1      18.755            0     0.00           0     0.00      0.00     0.00
"LOAD.S12B" .......   1      9.0216            0     0.00           0     0.00      0.00     0.00
"LOAD.S16C" .......   1      18.417            0     0.00           0     0.00      0.00     0.00
"LOAD.S17C" .......   1      9.2036            0     0.00           0     0.00      0.00     0.00
"LOAD.S19A" .......   1      18.785            0     0.00           0     0.00      0.00     0.00
"LOAD.S20A" .......   1      18.634            0     0.00           0     0.00      0.00     0.00
"LOAD.S22B" .......   1      19.107            0     0.00           0     0.00      0.00     0.00
"LOAD.S24C" .......   1      18.579            0     0.00           0     0.00      0.00     0.00
"LOAD.S28A" .......   1      18.634            0     0.00           0     0.00      0.00     0.00
"LOAD.S29A" .......   1      18.468            0     0.00           0     0.00      0.00     0.00
"LOAD.S30C" .......   1      18.592            0     0.00           0     0.00      0.00     0.00
"LOAD.S31C" .......   1      9.2943            0     0.00           0     0.00      0.00     0.00
"LOAD.S32C" .......   1       9.298            0     0.00           0     0.00      0.00     0.00
"LOAD.S33A" .......   1      18.634            0     0.00           0     0.00      0.00     0.00
"LOAD.S34C" .......   1      18.879            0     0.00           0     0.00      0.00     0.00
"LOAD.S35A" .......   1      10.738            0     0.00           0     0.00      0.00     0.00
"LOAD.S37A" .......   1      18.425            0     0.00           0     0.00      0.00     0.00
"LOAD.S38B" .......   1      9.3169            0     0.00           0     0.00      0.00     0.00
"LOAD.S39B" .......   1      9.1104            0     0.00           0     0.00      0.00     0.00
"LOAD.S41C" .......   1      9.2782            0     0.00           0     0.00      0.00     0.00
"LOAD.S42A" .......   1      9.4359            0     0.00           0     0.00      0.00     0.00
"LOAD.S43B" .......   1      19.018            0     0.00           0     0.00      0.00     0.00
"LOAD.S45A" .......   1      9.3169            0     0.00           0     0.00      0.00     0.00
"LOAD.S46A" .......   1      9.4553            0     0.00           0     0.00      0.00     0.00
"LOAD.S47" ........   1      17.908       0.1136     0.63     0.11375     0.64      0.00     0.00
"LOAD.S48" ........   1      35.867      0.29671     0.83     0.52394     1.46      0.00     0.00
"LOAD.S49A" .......   1      18.195            0     0.00           0     0.00      0.00     0.00
"LOAD.S49B" .......   1      35.154            0     0.00           0     0.00      0.00     0.00
"LOAD.S49C" .......   1       16.77            0     0.00           0     0.00      0.00     0.00
"LOAD.S50C" .......   1      18.611            0     0.00           0     0.00      0.00     0.00
"LOAD.S51A" .......   1      9.4608            0     0.00           0     0.00      0.00     0.00
"LOAD.S52A" .......   1      18.703            0     0.00           0     0.00      0.00     0.00
"LOAD.S53A" .......   1      18.755            0     0.00           0     0.00      0.00     0.00
"LOAD.S55A" .......   1      9.2406            0     0.00           0     0.00      0.00     0.00
"LOAD.S56B" .......   1      9.0615            0     0.00           0     0.00      0.00     0.00
"LOAD.S58B" .......   1      9.3169            0     0.00           0     0.00      0.00     0.00
"LOAD.S59B" .......   1      9.0923            0     0.00           0     0.00      0.00     0.00
"LOAD.S60A" .......   1      9.4846            0     0.00           0     0.00      0.00     0.00
"LOAD.S62C" .......   1      18.589            0     0.00           0     0.00      0.00     0.00
"LOAD.S63A" .......   1      18.996            0     0.00           0     0.00      0.00     0.00
"LOAD.S64B" .......   1      34.485            0     0.00           0     0.00      0.00     0.00
"LOAD.S65A" .......   1       10.23            0     0.00           0     0.00      0.00     0.00
"LOAD.S65B" .......   1      10.393            0     0.00           0     0.00      0.00     0.00
"LOAD.S65C" .......   1      20.493            0     0.00           0     0.00      0.00     0.00
"LOAD.S66C" .......   1      34.838            0     0.00           0     0.00      0.00     0.00
"LOAD.S68A" .......   1      8.9558            0     0.00           0     0.00      0.00     0.00
"LOAD.S69A" .......   1      17.942            0     0.00           0     0.00      0.00     0.00
"LOAD.S70A" .......   1      8.9815            0     0.00           0     0.00      0.00     0.00
"LOAD.S71A" .......   1      17.975            0     0.00           0     0.00      0.00     0.00
"LOAD.S73C" .......   1      18.046            0     0.00           0     0.00      0.00     0.00
"LOAD.S74C" .......   1      19.206            0     0.00           0     0.00      0.00     0.00
"LOAD.S75C" .......   1      18.097            0     0.00           0     0.00      0.00     0.00
"LOAD.S76A" .......   1      31.732            0     0.00           0     0.00      0.00     0.00
"LOAD.S76B" .......   1      20.679            0     0.00           0     0.00      0.00     0.00
"LOAD.S76C" .......   1      20.679            0     0.00           0     0.00      0.00     0.00
"LOAD.S77B" .......   1      17.826            0     0.00           0     0.00      0.00     0.00
"LOAD.S79A" .......   1      19.442            0     0.00           0     0.00      0.00     0.00
"LOAD.S80B" .......   1       17.79            0     0.00           0     0.00      0.00     0.00
"LOAD.S82A" .......   1       17.79            0     0.00           0     0.00      0.00     0.00
"LOAD.S83C" .......   1       8.967            0     0.00           0     0.00      0.00     0.00
"LOAD.S84C" .......   1      9.0032            0     0.00           0     0.00      0.00     0.00
"LOAD.S85C" .......   1      18.027            0     0.00           0     0.00      0.00     0.00
"LOAD.S86B" .......   1      8.9381            0     0.00           0     0.00      0.00     0.00
"LOAD.S87B" .......   1       17.89            0     0.00           0     0.00      0.00     0.00
"LOAD.S88A" .......   1      17.904            0     0.00           0     0.00      0.00     0.00
"LOAD.S90B" .......   1      18.634            0     0.00           0     0.00      0.00     0.00
"LOAD.S92C" .......   1      17.955            0     0.00           0     0.00      0.00     0.00
"LOAD.S94A" .......   1      17.932            0     0.00           0     0.00      0.00     0.00
"LOAD.S95B" .......   1      8.9544            0     0.00           0     0.00      0.00     0.00
"LOAD.S96B" .......   1      8.9566            0     0.00           0     0.00      0.00     0.00
"LOAD.S98A" .......   1      17.906            0     0.00           0     0.00      0.00     0.00
"LOAD.S99B" .......   1       17.85            0     0.00           0     0.00      0.00     0.00
"LOAD.S100C" ......   1      19.253            0     0.00           0     0.00      0.00     0.00
"LOAD.S102C" ......   1      9.0261            0     0.00           0     0.00      0.00     0.00
"LOAD.S103C" ......   1      18.081            0     0.00           0     0.00      0.00     0.00
"LOAD.S104C" ......   1      18.113            0     0.00           0     0.00      0.00     0.00
"LOAD.S106B" ......   1      17.859            0     0.00           0     0.00      0.00     0.00
"LOAD.S107B" ......   1      17.884            0     0.00           0     0.00      0.00     0.00
"LOAD.S109A" ......   1      18.036            0     0.00           0     0.00      0.00     0.00
"LOAD.S111A" ......   1       9.042            0     0.00           0     0.00      0.00     0.00
"LOAD.S112A" ......   1      9.3169            0     0.00           0     0.00      0.00     0.00
"LOAD.S113A" ......   1      19.163            0     0.00           0     0.00      0.00     0.00
"LOAD.S114A" ......   1      9.0634            0     0.00           0     0.00      0.00     0.00
